reference-matpower/case9241pegase/results/case9241pegase.m
function mpc = case9241pegase
%CASE9241PEGASE

%% MATPOWER Case Format : Version 2
mpc.version = '2';

%%-----  Power Flow Data  -----%%
%% system MVA base
mpc.baseMVA = 100;

%% bus data
%	bus_i	type	Pd	Qd	Gs	Bs	area	Vm	Va	baseKV	zone	Vmax	Vmin
mpc.bus = [
	1	1	378.4	98.5	0	16.61	0	1.00759728	-36.5716869	220	6	1.1	0.9;
	2	2	0	0	0	0	0	1.031734	-8.43484047	154	1	1.1	0.9;
	3	1	151	48.8	0	4.69	0	1.01784198	-21.085326	220	5	1.1	0.9;
	4	1	171.41	23.4	0	2.1	0	1.02050104	-6.89240881	220	5	1.1	0.9;
	5	1	45.95	14	0	13.34	0	0.989942258	-48.5130021	220	6	1.1	0.9;
	6	2	0	0	0	0	0	1.038476	-41.380133	380	6	1.1	0.9;
	7	1	31.03	10.3	0	0.65	0	0.969174305	-33.3197766	110	21	1.1	0.9;
	8	2	0	0	0	0	0	1.023005	-17.1856232	154	1	1.1	0.9;
	9	1	14.3	2	0	1.91	0	1.03265809	-0.0581261816	154	1	1.1	0.9;
	10	1	134	24.7	0	12.44	0	1.03335216	-23.7384608	220	5	1.1	0.9;
	11	1	0	0	0	0	0	0.965105427	-28.1850451	150	9	1.1	0.9;
	12	1	-6.11	2	0	0.47	0	1.03450826	-23.1282932	150	9	1.1	0.9;
	13	1	-22.74	-8.32	0	6.5	0	1.01386587	-47.3076023	220	6	1.1	0.9;
	14	1	13.5	14.8	0	132.435168	0	1.14146942	-18.2913472	380	9	1.3	0.7;
	15	1	59.67	26.7	0	12.84	0	1.02164982	-48.5492231	220	4	1.1	0.9;
	16	1	30.6	4.3	0	5.15	0	1.03243068	9.65644085	154	1	1.1	0.9;
	17	1	67.68	12.1	0	2.18	0	1.01056359	7.67536504	220	3	1.1	0.9;
	18	2	0	0	0	0	0	1.026728	19.0699005	380	3	1.1	0.9;
	19	1	25.33	7.5	0	2.39	0	1.00510973	-35.5774402	110	12	1.1	0.9;
	20	1	1.4	0.2	0	4.93	0	1.02451664	10.2689371	154	1	1.1	0.9;
	21	1	161.2	39.3	0	30.71	0	1.03134093	-21.3458538	220	5	1.1	0.9;
	22	1	0	-0	0	0.85	0	1.03171319	-17.981898	220	5	1.1	0.9;
	23	1	19.62	7.1	0	1.15	0	1.02536072	-23.4499642	110	19	1.1	0.9;
	24	1	17.22	5.7	0	1.22	0	0.961065445	-29.6427008	110	21	1.1	0.9;
	25	2	0	0	0	0	0	1.028526	13.9195073	220	3	1.1	0.9;
	26	1	167.3	54.8	0	110.54	0	1.02961248	-3.18578801	380	5	1.1	0.9;
	27	1	-0	-0	0	14.82	0	1.08549628	15.0493581	380	13	1.1	0.9;
	28	1	0	0	0	0	0	1.0049378	-28.6214959	150	9	1.1	0.9;
	29	1	152.9	49.4	0	27.65	0	1.00479949	-13.7404363	380	5	1.1	0.9;
	30	1	-0	0	0	0.56	0	1.02353107	-26.4639751	150	9	1.1	0.9;
	31	1	69.68	43.2	0	6.3	0	0.905480542	-32.2231918	150	9	1.3	0.7;
	32	2	0	0	0	0	0	1.003223	-42.6765789	220	4	1.1	0.9;
	33	2	0	0	0	0	0	1.026534	-38.2998129	220	4	1.1	0.9;
	34	1	13.52	4.9	0	1.8	0	1.02846956	-22.0610241	110	19	1.1	0.9;
	35	1	10.51	3.5	0	0.31	0	1.02647308	-33.872284	110	12	1.1	0.9;
	36	1	-0	-0	0.12	15.34	0	1.04548826	-18.8057933	220	19	1.1	0.9;
	37	1	9.21	2.6	0	2	0	0.972197293	-27.2377598	110	18	1.1	0.9;
	38	1	42.75	12.8	0	13.3	0	1.02283606	27.5124217	220	8	1.1	0.9;
	39	2	0	0	0	0	0	1.003511	-37.9728824	150	10	1.1	0.9;
	40	1	16.02	4.54	0	0.1	0	0.999072494	-28.827714	110	23	1.1	0.9;
	41	1	27.9	4	0	4.23	0	1.00862562	-5.23575256	154	1	1.1	0.9;
	42	1	20.82	7.9	0	26.89	0	1.04239241	-48.8366779	380	4	1.1	0.9;
	43	1	12.6	1.8	0	2.03	0	1.02873905	-12.3138961	154	1	1.1	0.9;
	44	1	-0	0	0	7.27	0	1.04074115	-21.6151665	220	5	1.1	0.9;
	45	1	10.11	3.7	0	0.81	0	1.04806301	-22.6858758	110	19	1.1	0.9;
	46	1	10.01	2.7	0	1.14	0	0.958464824	-27.0537518	110	18	1.1	0.9;
	47	1	6.31	0	0	0.67	0	0.985856382	-25.5542734	110	18	1.1	0.9;
	48	1	2.9	0.9	0	0.6	0	1.04548774	-23.6835041	110	15	1.1	0.9;
	49	2	0	0	0	0	0	1.020323	-35.2712265	220	6	1.1	0.9;
	50	1	48.8	6.9	0	8.71	0	1.02500815	-0.86766083	154	1	1.1	0.9;
	51	2	0	0	0	0	0	1.006665	-47.8516846	220	4	1.1	0.9;
	52	1	127.6	31.8	0	20.51	0	1.01771905	0.956910291	150	8	1.1	0.9;
	53	1	48.65	16.1	0	7.14	0	1.05343233	-9.05979755	220	5	1.1	0.9;
	54	1	110.5	-26.8	0	16.37	0	1.02377862	-34.6658507	220	6	1.1	0.9;
	55	1	0	-0	0	1.23	0	0.99693454	10.6598573	220	3	1.1	0.9;
	56	1	140	79.7	0	6.5	0	1.01062209	-15.9208603	220	3	1.1	0.9;
	57	1	21.6	3	0	3.54	0	1.00653281	-6.10055643	154	1	1.1	0.9;
	58	1	0	0	0	2.31	0	1.02749116	-18.4264049	380	5	1.1	0.9;
	59	1	119.2	20.7	0	3.31	0	1.02675193	-23.7268642	220	5	1.1	0.9;
	60	1	0.24	-1.66	0	0.65	0	1.02435765	-17.6312769	110	18	1.1	0.9;
	61	1	-0	0	0	58.57	0	1.09274668	47.049828	380	3	1.1	0.9;
	62	1	-0	0	0	1.34	0	0.970170984	-25.438382	110	18	1.1	0.9;
	63	1	187.9	110.2	0	21.25	0	1.0190395	6.46200311	380	3	1.1	0.9;
	64	1	14.92	5.5	0	1.31	0	1.05820024	-21.0901264	110	15	1.1	0.9;
	65	1	-18.52	6.1	0	0.79	0	0.92019017	-30.7260091	150	9	1.1	0.9;
	66	1	4.61	1.7	0	2.32	0	1.07592329	-16.7114346	110	19	1.1	0.9;
	67	1	0	0	0.099501	82.133595	0	1.07686537	-20.36848	380	18	1.1	0.9;
	68	1	10.81	5.1	0	1.09	0	0.932261998	-30.203518	110	18	1.1	0.9;
	69	1	62.87	20.5	0	1.15	0	1.01688508	-0.256364761	150	8	1.1	0.9;
	70	1	0	0	0	2.64	0	1.02184183	-3.68508527	154	1	1.1	0.9;
	71	1	126.3	42.4	0	55.24	0	1.04566592	4.05721857	150	8	1.1	0.9;
	72	1	6.91	-4.6	0	5.75	0	1.00741428	-40.8167639	220	4	1.1	0.9;
	73	1	15.72	5.2	0	0.11	0	1.01129971	-36.0238873	110	12	1.1	0.9;
	74	1	0	0	0	0	0	1.04847347	-26.0903732	150	9	1.1	0.9;
	75	1	38.74	6.1	0	1.17	0	1.01904095	-52.9143372	220	4	1.1	0.9;
	76	1	22.13	10.7	0	14.21	0	1.02288083	27.5222751	220	8	1.1	0.9;
	77	1	-0	-0	0	0.73	0	1.00827026	-50.1591396	220	4	1.1	0.9;
	78	1	0	-0	0	0.83	0	0.981822892	-18.5690367	110	18	1.1	0.9;
	79	1	138.8	136.7	0	8.76	0	1.01437009	14.7964426	380	3	1.1	0.9;
	80	2	0	0	0	0	0	1.068393	-23.9456958	220	23	1.1	0.9;
	81	1	67.76	19.18	0	1.47	0	1.01092554	62.1034555	150	1	1.1	0.9;
	82	1	22.02	5.1	0	0.69	0	1.03233084	-31.3925881	110	1	1.1	0.9;
	83	1	0	0	0	6.62	0	0.980399611	14.5634385	220	3	1.1	0.9;
	84	1	1	0.3	0	0.19	0	1.01810386	-23.6832937	110	19	1.1	0.9;
	85	1	20.9	3	0	5.74	0	1.02207122	20.0067913	154	1	1.1	0.9;
	86	1	0	0	0	0.12	0	1.05108422	-21.3964228	150	9	1.1	0.9;
	87	1	21.52	5.1	0	0.5	0	1.0178895	-12.7159915	110	18	1.1	0.9;
	88	1	71.98	28.8	0	11	0	1.00674716	-36.1969114	220	6	1.1	0.9;
	89	1	0	0	0.199111	4.530599	0	0.99105946	-2.195772	380	2	1.1	0.9;
	90	1	363.25	115.39	0	3.95	0	1.04205795	-27.3398999	220	5	1.1	0.9;
	91	1	-0	0	0	0.02	0	1.02704383	1.91401951	150	8	1.1	0.9;
	92	1	192.9	73.3	0	20.75	0	1.02112208	4.75405718	380	3	1.1	0.9;
	93	1	17.52	6.3	0	0.26	0	1.05866003	-18.7302271	110	19	1.1	0.9;
	94	1	33.14	12	0	0.65	0	1.00796493	-21.5734642	110	19	1.1	0.9;
	95	1	40.45	25	0	9.82	0	0.98000828	-27.0691736	150	9	1.1	0.9;
	96	1	193.17	53.37	0	4.58	0	1.03674836	-14.9550097	220	5	1.1	0.9;
	97	1	0	0	0	9.38	0	1.05333142	3.44527425	380	1	1.1	0.9;
	98	1	90.7	25.5	0	3.11	0	1.04773854	-1.75795541	220	3	1.1	0.9;
	99	1	176.3	-58.9	0	24.77	0	1.02505089	-32.392776	380	6	1.1	0.9;
	100	1	35.94	22.3	0	0	0	1.03386259	-26.7676744	150	9	1.1	0.9;
	101	1	-0	0	0	0.29	0	0.964840661	-28.1965612	150	9	1.1	0.9;
	102	1	0	-0	0	3.77	0	1.00400815	-49.7224639	220	6	1.1	0.9;
	103	1	65.07	40.3	0	5.43	0	0.992021813	-31.0096578	150	9	1.1	0.9;
	104	1	51.36	-8.8	0	2.15	0	0.965338326	-54.5938803	220	6	1.1	0.9;
	105	1	-0	-0	0	82.55	0	1.03670236	-33.6901867	380	6	1.1	0.9;
	106	1	0	-0	0	31.19	0	1.16240118	-19.3894811	380	23	1.3	0.7;
	107	2	0	0	0	0	0	1.083135	42.7453459	380	3	1.3	0.7;
	108	1	3.8	1.3	0	0.4	0	1.00519175	-15.6211808	110	18	1.1	0.9;
	109	1	137	19.5	0	4.9	0	1.00485771	-8.30968851	154	1	1.1	0.9;
	110	1	0	0	0	0	0	0.994256365	-28.851949	150	9	1.1	0.9;
	111	1	61.07	36	0	3.09	0	1.04847141	-23.0705474	220	11	1.1	0.9;
	112	1	0	0	0	3.24	0	1.02832841	-8.86079415	220	3	1.1	0.9;
	113	1	-0	-0	0	6.532711	0	1.02741017	-13.7797312	380	5	1.1	0.9;
	114	1	55.7	7.9	0	4.21	0	1.0265084	13.3749751	154	1	1.1	0.9;
	115	1	0	-0	0	4.21	0	1.06162096	-19.1619752	220	5	1.1	0.9;
	116	1	1.8	0.7	0	0.3	0	1.03875731	-20.1275317	110	19	1.1	0.9;
	117	1	40.04	16	0	0.52	0	1.00245603	-22.0462627	110	18	1.1	0.9;
	118	1	-0	0	0	36.562834	0	1.02392203	-11.0817323	380	5	1.1	0.9;
	119	1	0	0	0	0.09	0	1.06662324	-18.0346329	150	9	1.1	0.9;
	120	1	140.6	20.1	0	13.81	0	1.01768816	-20.9184435	154	1	1.1	0.9;
	121	1	45.15	14.1	0	0.19	0	1.06168355	-22.8246059	110	15	1.1	0.9;
	122	1	-0	0	0	5.75	0	1.00265873	9.56541584	220	3	1.1	0.9;
	123	2	0	0	0	0	0	1.041503	-20.0787055	220	11	1.1	0.9;
	124	2	0	0	0	0	0	1.077112	8.57109101	220	5	1.1	0.9;
	125	1	3.42	2.68	0	1.46	0	1.02228181	-17.66724	110	18	1.1	0.9;
	126	1	0	-0	0	2.64	0	1.00983923	7.23219124	154	1	1.1	0.9;
	127	1	-0	-0	0	4.3	0	1.0217565	-27.6339016	220	6	1.1	0.9;
	128	1	23.73	12.7	0	0.52	0	1.01520017	-15.3810928	220	5	1.1	0.9;
	129	1	121.9	7.4	0	1.34	0	1.01926883	-11.3687514	220	3	1.1	0.9;
	130	1	-0	0	0.135375	47.750675	0	1.0579505	-47.0267833	380	10	1.1	0.9;
	131	1	47.35	16.4	0	4.08	0	1.03251909	-37.1745707	110	22	1.1	0.9;
	132	1	0	-0	0	21.39	0	1.06240746	-43.6569422	380	1	1.1	0.9;
	133	1	38.14	12.5	0	6.28	0	1.02144514	2.54325908	150	8	1.1	0.9;
	134	1	54.2	7.8	0	94.9	0	1.01293164	9.77962306	400	1	1.1	0.9;
	135	1	130.6	84.9	0	4.22	0	1.02197469	-21.0797135	220	7	1.1	0.9;
	136	1	7.91	2.6	0	0.74	0	1.00648546	-33.5345064	110	12	1.1	0.9;
	137	1	42.1	74.61	0	37.58	0	1.00306402	62.3843548	150	1	1.1	0.9;
	138	1	-75.38	7.8	0	29.9	0	1.06747202	-41.6744796	380	10	1.1	0.9;
	139	1	-0	-0	0	36.92	0	1.01303453	18.139441	380	8	1.1	0.9;
	140	1	0	0	0	4.14	0	1.02628425	18.7021802	220	8	1.1	0.9;
	141	2	0	0	0	0	0	1.050716	-0.390090246	220	13	1.1	0.9;
	142	2	0	0	0	0	0	1.042299	-30.116607	220	6	1.1	0.9;
	143	1	0	0	0	0	0	1.02234543	5.27833998	150	8	1.1	0.9;
	144	1	0	0	0	98.53	0	1.06386276	20.1372473	380	14	1.1	0.9;
	145	1	38.34	5.6	0	7.64	0	1.03823622	-8.85209342	220	5	1.1	0.9;
	146	1	269.6	65.7	0	0	0	1.08564056	-23.3949151	120	20	1.3	0.7;
	147	2	0	0	0	0	0	1.058041	-12.4223676	220	7	1.1	0.9;
	148	1	32.34	12	0	6.1	0	1.03462479	-7.91283905	220	5	1.1	0.9;
	149	1	100.1	45.1	0	1.11	0	1.02168389	-40.1274748	380	6	1.1	0.9;
	150	2	0	0	0	0	0	1.062129	2.64445269	220	5	1.1	0.9;
	151	2	0	0	0	0	0	1.013748	-20.4900713	154	1	1.1	0.9;
	152	1	7	1	0	4.69	0	1.05033193	-2.22927869	154	1	1.1	0.9;
	153	1	-0	0	0	0.56	0	1.01377786	-29.2664874	150	7	1.1	0.9;
	154	1	0	0	0	1.29	0	1.01673493	-37.0620609	110	12	1.1	0.9;
	155	1	-0	-0	0	1.7	0	1.01983248	-26.7083271	110	21	1.1	0.9;
	156	1	40.34	25	0	1.14	0	0.953090655	-28.6333604	150	9	1.1	0.9;
	157	1	9.21	3.3	0	1.2	0	1.0146571	-10.8316623	110	19	1.1	0.9;
	158	1	166	60.3	0	0.57	0	1.01503742	8.00379145	220	3	1.1	0.9;
	159	1	0	-0	0	0.1	0	1.0213361	-26.5114453	150	9	1.1	0.9;
	160	1	79.4	11.3	0	4.92	0	1.03101391	4.40294473	154	1	1.1	0.9;
	161	1	-0	-0	0	0.16	0	1.09100264	-24.726718	150	9	1.1	0.9;
	162	1	0	0	0	66.65	0	1.05231134	-14.811844	380	6	1.1	0.9;
	163	1	147.76	32.73	0	8.34	0	1.04545496	-10.119085	220	5	1.1	0.9;
	164	1	0	-0	0	5.17	0	1.02083965	0.0930300135	150	8	1.1	0.9;
	165	1	26.8	-3.7	0	51.261678	0	1.07315875	-20.8846142	380	9	1.1	0.9;
	166	2	0	0	0	0	0	1.040747	13.4804642	220	3	1.1	0.9;
	167	1	257.5	131.1	0	1.08	0	1.03977702	-3.42759977	220	3	1.1	0.9;
	168	1	16.7	2.4	0	6.09	0	1.03317659	15.6380895	154	1	1.1	0.9;
	169	1	0	0	0	1.91	0	1.04553073	-26.256838	150	9	1.1	0.9;
	170	1	-0	-0	0	2.35	0	1.01145081	36.6506439	220	1	1.1	0.9;
	171	1	100.8	13.2	0	5.24	0	1.06196941	-24.8472843	220	5	1.1	0.9;
	172	1	111.7	10.96	0	4.22	0	1.01011346	-46.9480271	220	4	1.1	0.9;
	173	1	90.38	-5.05	0	8.49	0	1.05470054	16.1913503	220	13	1.1	0.9;
	174	1	370.5	-17	0	9.91	0	1.07089486	-27.4626525	220	5	1.1	0.9;
	175	1	9.91	3.2	0	0.67	0	1.00379173	-38.2942682	110	12	1.1	0.9;
	176	1	-0.69	-5.46	0	5.07	0	1.04084508	-25.3607673	150	9	1.1	0.9;
	177	1	94.9	36.2	0	16.46	0	0.969765204	-43.0363448	220	10	1.1	0.9;
	178	1	81.09	48	0	0.03	0	1.01321215	-27.1679543	150	9	1.1	0.9;
	179	2	0	0	0	0	0	1.043661	-49.6453262	380	4	1.1	0.9;
	180	1	0	0	0	0.54	0	1.02953181	-25.4413724	110	21	1.1	0.9;
	181	1	54.96	16.9	0	3.37	0	1.040587	-36.3836967	110	22	1.1	0.9;
	182	1	19.32	26	0	0.69	0	1.03556112	40.2047713	220	3	1.1	0.9;
	183	1	0	0	0	1.83	0	1.03146511	-25.9863434	150	9	1.1	0.9;
	184	1	-0	-0	0	2.42	0	1.03753632	-11.1927746	220	5	1.1	0.9;
	185	1	20.9	3	0	4.11	0	1.007995	-3.63899714	154	1	1.1	0.9;
	186	1	19.92	6.6	0	0.56	0	1.00964544	-27.7468983	110	21	1.1	0.9;
	187	1	57.16	2	0	1.48	0	1.00247263	-35.6435085	110	22	1.1	0.9;
	188	1	36.84	13.9	0	3.3	0	1.01521804	-19.1199459	220	5	1.1	0.9;
	189	1	-15.04	-5.12	0	0.43	0	1.00122972	-25.4810806	110	18	1.1	0.9;
	190	2	0	0	0	0	0	1.025544	-18.8741628	110	19	1.1	0.9;
	191	1	0	-0	0	14.19	0	1.01622194	-35.6925379	220	6	1.1	0.9;
	192	2	0	0	0	0	0	1.048355	66.7071156	380	3	1.1	0.9;
	193	1	119.9	3.7	0	3.33	0	1.03133223	25.5265123	220	3	1.1	0.9;
	194	2	0	0	0	0	0	1.02931	13.7184547	150	8	1.1	0.9;
	195	1	73.14	21.55	0	8.52	0	1.04891158	-8.4949417	220	5	1.1	0.9;
	196	1	0	-0	0	12.48	0	1.06884835	-25.7587175	220	5	1.1	0.9;
	197	2	0	0	0	0	0	1.099985	46.0453451	380	3	1.1	0.9;
	198	1	39.74	11.8	0	1.44	0	1.01128647	-15.6481561	220	5	1.1	0.9;
	199	1	86.8	28.4	0	1.34	0	1.01768519	1.17683501	150	8	1.1	0.9;
	200	1	22.42	2.1	0	0.19	0	1.01097722	62.2625964	150	1	1.1	0.9;
...
];

%% generator data
%	bus	Pg	Qg	Qmax	Qmin	Vg	mBase	status	Pmax	Pmin	Pc1	Pc2	Qc1min	Qc1max	Qc2min	Qc2max	ramp_agc	ramp_10	ramp_30	ramp_q	apf
mpc.gen = [
	2	-81.4	6.67278665	42.19	-20.45	1.031734	100	1	100	-108.53	0	0	0	0	0	0	0	0	0	0	0;
	6	701	221.305204	524.53	-211.57	1.038476	100	1	1200	400	0	0	0	0	0	0	0	0	0	0	0;
	8	499.7	2.64656991	251.73	-246.25	1.023005	100	1	524.68	0	0	0	0	0	0	0	0	0	0	0	0;
	18	467.5	219.654288	212.97	-93.48	1.026728	100	1	500	166.67	0	0	0	0	0	0	0	0	0	0	0;
	25	319.6	164.622621	179.43	-66.21	1.028526	100	1	400	0	0	0	0	0	0	0	0	0	0	0	0;
	32	8	36.6158858	5.91	-4.56	1.003223	100	1	16.2	0	0	0	0	0	0	0	0	0	0	0	0;
	33	5.3	-0.324607191	2.27	-1.08	1.026534	100	1	5.38	0	0	0	0	0	0	0	0	0	0	0	0;
	39	34.3	5.12514329	17.76	-7.14	1.003511	100	1	40	0	0	0	0	0	0	0	0	0	0	0	0;
	49	309.2	84.9845881	218.52	-75.97	1.020323	100	1	480	0	0	0	0	0	0	0	0	0	0	0	0;
	51	-144.5	3.97065677	5.48	-4.19	1.006665	100	1	100	-192.67	0	0	0	0	0	0	0	0	0	0	0;
	80	43.2	18.6679483	139.94	-43.78	1.068393	100	1	100	28.8	0	0	0	0	0	0	0	0	0	0	0;
	107	570	-6.70062884	253.85	-113.79	1.083135	100	1	600	200	0	0	0	0	0	0	0	0	0	0	0;
	123	24.9	19.8447366	18.84	-6.06	1.041503	100	1	40	0	0	0	0	0	0	0	0	0	0	0	0;
	124	861.3	69.2692578	440.32	-172.59	1.077112	100	1	1000	333.33	0	0	0	0	0	0	0	0	0	0	0;
	141	-73.2	9.94338244	18.59	-6.33	1.050716	100	1	100	-97.6	0	0	0	0	0	0	0	0	0	0	0;
	142	158.7	3.49657614	78.15	-32.4	1.042299	100	1	180	0	0	0	0	0	0	0	0	0	0	0	0;
	147	-16	15.8112028	70.12	-29.5	1.058041	100	1	100	-21.33	0	0	0	0	0	0	0	0	0	0	0;
	150	67.29	0.732530659	77.09	-22.54	1.062129	100	1	160	0	0	0	0	0	0	0	0	0	0	0	0;
	151	-110.35	-6.73995611	37.97	-58.18	1.013748	100	1	100	-147.13	0	0	0	0	0	0	0	0	0	0	0;
	166	292.2	109.40458	127.67	-56.53	1.040747	100	1	300	0	0	0	0	0	0	0	0	0	0	0	0;
	179	-179.2	113.006939	52.64	-51.72	1.043661	100	1	100	-238.93	0	0	0	0	0	0	0	0	0	0	0;
	190	90.69	31.4034134	54.24	-20.63	1.025544	100	1	120	0	0	0	0	0	0	0	0	0	0	0	0;
	192	135.8	13.0147144	91.61	-30.98	1.048355	100	1	200	0	0	0	0	0	0	0	0	0	0	0	0;
	194	268.6	42.2911338	130.19	-53.53	1.02931	100	1	300	100	0	0	0	0	0	0	0	0	0	0	0;
	197	292.2	69.0458824	123.89	-59.54	1.099985	100	1	300	0	0	0	0	0	0	0	0	0	0	0	0;
	201	5.2	4.27619911	2.27	-1.07	1.01914	100	1	5.37	0	0	0	0	0	0	0	0	0	0	0	0;
	209	25.4	10.0559708	18.7	-6.17	1.026832	100	1	40	0	0	0	0	0	0	0	0	0	0	0	0;
	214	-175.2	87.8388918	192	-52.89	1.079765	100	1	100	-233.6	0	0	0	0	0	0	0	0	0	0	0;
	219	1171	610.012377	937.43	-288.16	1.056623	100	1	2000	666.67	0	0	0	0	0	0	0	0	0	0	0;
	220	668.7	-114.968045	402.92	-146.95	1.047116	100	1	900	300	0	0	0	0	0	0	0	0	0	0	0;
	221	296	33.0575917	183.92	-65.3	1.030636	100	1	400	133.33	0	0	0	0	0	0	0	0	0	0	0;
	222	-147.3	7.24681706	12.51	-5.62	1.030494	100	1	100	-196.4	0	0	0	0	0	0	0	0	0	0	0;
	239	-7.05	24.0897789	38.52	-11.24	1.018711	100	1	100	-9.4	0	0	0	0	0	0	0	0	0	0	0;
	246	307.1	-7.27562285	378.08	-112.59	1.06685	100	1	800	266.67	0	0	0	0	0	0	0	0	0	0	0;
	248	-172	104.491334	37.47	-12.35	1.043991	100	1	100	-229.33	0	0	0	0	0	0	0	0	0	0	0;
	255	423.2	-31.0846811	220.66	-85.89	1.059597	100	1	500	166.67	0	0	0	0	0	0	0	0	0	0	0;
	262	-115.4	35.2960743	38.1	-11.72	1.033795	100	1	100	-153.87	0	0	0	0	0	0	0	0	0	0	0;
	263	-34.4	0.128055411	5.05	-6.95	1.028681	100	1	100	-45.87	0	0	0	0	0	0	0	0	0	0	0;
	278	-64.1	9.32413734	37.7	-12.09	1.014153	100	1	100	-85.47	0	0	0	0	0	0	0	0	0	0	0;
	282	1245.7	-185.45768	924.64	-300.35	1.077605	100	1	2000	666.67	0	0	0	0	0	0	0	0	0	0	0;
	289	52.7	-3.67825659	26.02	-10.81	1.046783	100	1	60	0	0	0	0	0	0	0	0	0	0	0	0;
	294	250	25.7427689	45.1	-21.32	1.003375	100	1	480	160	0	0	0	0	0	0	0	0	0	0	0;
	299	975.9	101.659706	721.25	-258.71	1.039248	100	1	1600	533.33	0	0	0	0	0	0	0	0	0	0	0;
	309	95.1	38.77272	42.62	-18.72	0.989085	100	1	100	0	0	0	0	0	0	0	0	0	0	0	0;
	310	346.18	662.187573	Inf	-Inf	1.155322	100	1	700	200	0	0	0	0	0	0	0	0	0	0	0;
	313	9.6	-1.64989225	4.83	-7.17	1.025259	100	1	10.08	0	0	0	0	0	0	0	0	0	0	0	0;
	320	1760	-209.981986	320.04	-843.96	1.013336	100	1	1812	604	0	0	0	0	0	0	0	0	0	0	0;
	324	94	40.1646175	95.32	-27.29	1.063285	100	1	200	0	0	0	0	0	0	0	0	0	0	0	0;
	325	-21.4	5.64896006	1.93	-1.01	1.009625	100	1	100	-28.53	0	0	0	0	0	0	0	0	0	0	0;
	328	-77.9	14.4280034	188.91	-56.14	1.017618	100	1	100	-103.87	0	0	0	0	0	0	0	0	0	0	0;
	338	83.7	3.4436528	55.54	-19.16	1.046957	100	1	120	0	0	0	0	0	0	0	0	0	0	0	0;
	347	50.8	-13.2412944	33.33	-42.67	1.020949	100	1	53.42	0	0	0	0	0	0	0	0	0	0	0	0;
	348	160.4	3.38605269	110.57	-36.9	1.057894	100	1	240	0	0	0	0	0	0	0	0	0	0	0	0;
	352	1250.4	269.78085	926.35	-297.68	1.048835	100	1	2000	666.67	0	0	0	0	0	0	0	0	0	0	0;
	361	238.3	53.0782805	186.39	-58.5	1.05949	100	1	400	133.33	0	0	0	0	0	0	0	0	0	0	0;
	366	185.6	66.1964971	61.97	-120.27	1.008853	100	1	196	65.33	0	0	0	0	0	0	0	0	0	0	0;
	372	-54.9	67.9771202	282.95	-84.3	1.074991	100	1	100	-73.2	0	0	0	0	0	0	0	0	0	0	0;
	382	25.68	21.9732422	38.4	-11.44	1.060853	100	1	80	0	0	0	0	0	0	0	0	0	0	0	0;
	389	69	17.9159031	56.73	-17.84	1.017731	100	1	120	0	0	0	0	0	0	0	0	0	0	0	0;
	394	2404.4	-8.93666443	1224.26	-490.17	1.063147	100	1	2800	933.33	0	0	0	0	0	0	0	0	0	0	0;
	406	31	11.7191137	22.22	-17.35	1.012399	100	1	61.23	0	0	0	0	0	0	0	0	0	0	0	0;
	409	-62	-4.5850685	24.32	-29.67	1.032831	100	1	100	-82.67	0	0	0	0	0	0	0	0	0	0	0;
	411	35.9	5.84954195	17.66	-7.27	1.03248	100	1	40	0	0	0	0	0	0	0	0	0	0	0	0;
	413	231	28.5584322	124.12	-49.84	1.048421	100	1	280	0	0	0	0	0	0	0	0	0	0	0	0;
	423	-19.2	1.91247306	5.22	-2.6	1.030299	100	1	100	-25.6	0	0	0	0	0	0	0	0	0	0	0;
	424	636.3	291.317973	304.38	-125.48	1.051241	100	1	700	233.33	0	0	0	0	0	0	0	0	0	0	0;
	433	436	202.911503	217.18	-89.22	1.024885	100	1	500	166.67	0	0	0	0	0	0	0	0	0	0	0;
	434	-2.8	4.16374155	2.75	-3.25	1.037999	100	1	100	-3.73	0	0	0	0	0	0	0	0	0	0	0;
	438	74	12.7832063	45.1	-16.18	1.038705	100	1	100	0	0	0	0	0	0	0	0	0	0	0	0;
	439	308.6	-38.5941224	175.16	-69.21	1.072491	100	1	400	0	0	0	0	0	0	0	0	0	0	0	0;
	440	83.1	1.71816417	55.73	-19.01	1.028093	100	1	120	0	0	0	0	0	0	0	0	0	0	0	0;
	442	-40.35	5.456501	1.95	-0.93	1.011727	100	1	100	-53.8	0	0	0	0	0	0	0	0	0	0	0;
	447	37.7	3.56196383	16.84	-8.04	1.035215	100	1	40	0	0	0	0	0	0	0	0	0	0	0	0;
	452	-56.8	17.6288843	37.86	-11.94	1.013382	100	1	100	-75.73	0	0	0	0	0	0	0	0	0	0	0;
	453	260.1	77.3986117	257.23	-74.4	1.024712	100	1	540	0	0	0	0	0	0	0	0	0	0	0	0;
	456	-28.08	-11.3531684	44.8	-39.81	0.999847	100	1	100	-37.44	0	0	0	0	0	0	0	0	0	0	0;
	484	229.5	0.641172039	132.41	-50.85	1.054091	100	1	300	0	0	0	0	0	0	0	0	0	0	0	0;
	489	-107.4	2.38251079	6.28	-4.82	1.008032	100	1	100	-143.2	0	0	0	0	0	0	0	0	0	0	0;
	491	105.4	112.358539	94.56	-28.1	1.033193	100	1	200	0	0	0	0	0	0	0	0	0	0	0	0;
	505	110.6	-13.3449851	37.34	-58.33	1.022173	100	1	116.03	0	0	0	0	0	0	0	0	0	0	0	0;
	511	101.4	164.384724	94.38	-28.04	1.081589	100	1	200	0	0	0	0	0	0	0	0	0	0	0	0;
	515	324.82	-120.487644	72.5	-27.24	1.045162	100	1	700	200	0	0	0	0	0	0	0	0	0	0	0;
	516	539.4	184.078763	261.79	-106.67	1.07129	100	1	600	200	0	0	0	0	0	0	0	0	0	0	0;
	518	-410.3	46.0585115	85.63	-37.21	1.067615	100	1	100	-547.07	0	0	0	0	0	0	0	0	0	0	0;
	524	69	-12.9944487	30.15	-43.07	1.046979	100	1	72.45	0	0	0	0	0	0	0	0	0	0	0	0;
	541	118.2	-13.3498267	7.81	-27.19	1.03819	100	1	124.19	0	0	0	0	0	0	0	0	0	0	0	0;
	564	-51.67	6.56365923	18.47	-19.35	1.06702	100	1	100	-68.89	0	0	0	0	0	0	0	0	0	0	0;
	578	-110.3	12.7744063	25.88	-11.01	1.042146	100	1	100	-147.07	0	0	0	0	0	0	0	0	0	0	0;
	583	-270	6.85952515	17.88	-7.03	1.048595	100	1	100	-360	0	0	0	0	0	0	0	0	0	0	0;
	587	246	2.04143679	185.56	-59.39	1.040079	100	1	400	133.33	0	0	0	0	0	0	0	0	0	0	0;
	590	100.7	156.069269	380.31	-110.08	1.065004	100	1	300	67.13	0	0	0	0	0	0	0	0	0	0	0;
	615	38.2	2.91334112	17.09	-7.79	1.068592	100	1	40	0	0	0	0	0	0	0	0	0	0	0	0;
	616	379.2	34.5393083	217.9	-81.16	1.04484	100	1	480	160	0	0	0	0	0	0	0	0	0	0	0;
	618	670.3	6.04208953	351.18	-139.11	1.022784	100	1	800	266.67	0	0	0	0	0	0	0	0	0	0	0;
	628	152.4	49.9478334	78.79	-31.69	0.982057	100	1	180	0	0	0	0	0	0	0	0	0	0	0	0;
	636	101.89	4.71989741	52.99	-21.87	1.04241	100	1	120	0	0	0	0	0	0	0	0	0	0	0	0;
	637	21.3	0.919534692	11.2	-8.44	1.031148	100	1	22.32	0	0	0	0	0	0	0	0	0	0	0	0;
	639	-46.2	120.28012	135.52	-38.9	1.033532	100	1	100	-61.6	0	0	0	0	0	0	0	0	0	0	0;
	642	63.33	2.24251085	90.13	-93.03	1.031368	100	1	276.09	0	0	0	0	0	0	0	0	0	0	0	0;
	648	47.2	5.31614263	37.95	-11.87	1.02749	100	1	80	0	0	0	0	0	0	0	0	0	0	0	0;
	672	67	-0.714539288	71.32	-62.92	1.02121	100	1	205.81	0	0	0	0	0	0	0	0	0	0	0	0;
	682	37.4	8.62298294	38.77	-11.06	1.060787	100	1	80	0	0	0	0	0	0	0	0	0	0	0	0;
	686	-21.65	-4.21076345	34.75	-34.26	1.013903	100	1	100	-28.86	0	0	0	0	0	0	0	0	0	0	0;
	692	274.8	-4.69262853	182.17	-62.79	1.059006	100	1	400	133.33	0	0	0	0	0	0	0	0	0	0	0;
	697	634.8	29.9212672	357.4	-132.75	1.031719	100	1	800	266.67	0	0	0	0	0	0	0	0	0	0	0;
	698	274.8	14.3739139	129.94	-53.91	0.999662	100	1	300	100	0	0	0	0	0	0	0	0	0	0	0;
	709	16	61.5848304	22.23	-20.83	1.068875	100	1	65.3	0	0	0	0	0	0	0	0	0	0	0	0;
	711	27.8	84.0459957	377.01	-113.63	1.070147	100	1	100	18.53	0	0	0	0	0	0	0	0	0	0	0;
	713	99.3	8.52577707	53.98	-20.79	1.034791	100	1	120	0	0	0	0	0	0	0	0	0	0	0	0;
	714	453.4	77.7838363	376.36	-114.08	1.065017	100	1	800	266.67	0	0	0	0	0	0	0	0	0	0	0;
	715	323.1	50.9679254	66.42	-179.95	1.021604	100	1	366	122	0	0	0	0	0	0	0	0	0	0	0;
	727	384.26	-20.5469723	379.61	-111.09	1.070143	100	1	800	266.67	0	0	0	0	0	0	0	0	0	0	0;
	728	70.8	-16.4813762	35.73	-44.31	1.030375	100	1	74.28	0	0	0	0	0	0	0	0	0	0	0	0;
	735	170	-22.9638117	89.94	-122.06	1.026593	100	1	178.5	0	0	0	0	0	0	0	0	0	0	0	0;
	738	90.79	48.6184914	107.86	-95.15	1.033376	100	1	311.39	34.6	0	0	0	0	0	0	0	0	0	0	0;
	739	465.7	79.2125367	212.97	-93.45	1.035442	100	1	500	166.67	0	0	0	0	0	0	0	0	0	0	0;
	749	198.88	7.0069935	105.69	-43.84	1.053546	100	1	240	0	0	0	0	0	0	0	0	0	0	0	0;
	751	65.9	12.309465	136.94	-47.24	1.020488	100	1	300	0	0	0	0	0	0	0	0	0	0	0	0;
	757	116.7	118.645929	51.3	-23.41	1.013994	100	1	120	0	0	0	0	0	0	0	0	0	0	0	0;
	763	37.3	6.02362246	27.88	-8.97	1.042899	100	1	60	0	0	0	0	0	0	0	0	0	0	0	0;
	764	138.3	16.7698889	174.17	-71.12	1.048246	100	1	400	133.33	0	0	0	0	0	0	0	0	0	0	0;
	765	170.7	20.1377	76.76	-33.84	1.017174	100	1	180	0	0	0	0	0	0	0	0	0	0	0	0;
	774	134.4	-6.67259532	81.57	-60.74	1.038992	100	1	141.12	0	0	0	0	0	0	0	0	0	0	0	0;
	776	-111.4	9.20885112	18.16	-6.73	1.023986	100	1	100	-148.53	0	0	0	0	0	0	0	0	0	0	0;
	778	16.5	4.77660451	12.37	-9.36	1.047837	100	1	33.58	0	0	0	0	0	0	0	0	0	0	0	0;
	779	37.8	11.2608851	17.34	-7.58	1.039304	100	1	45	0	0	0	0	0	0	0	0	0	0	0	0;
	780	50.8	17.2370913	37.43	-12.32	1.001975	100	1	80	0	0	0	0	0	0	0	0	0	0	0	0;
	791	569.74	10.1389638	567.63	-167.48	1.052091	100	1	1200	400	0	0	0	0	0	0	0	0	0	0	0;
	795	58.4	7.51115226	36.75	-13.04	1.041931	100	1	80	0	0	0	0	0	0	0	0	0	0	0	0;
	796	31.6	21.8923039	39	-10.74	1.01604	100	1	80	0	0	0	0	0	0	0	0	0	0	0	0;
	803	-89.2	19.3040517	74.03	-25.54	1.04662	100	1	100	-118.93	0	0	0	0	0	0	0	0	0	0	0;
	807	1597.5	-20.9176273	864.47	-360.97	1.053518	100	1	2000	666.67	0	0	0	0	0	0	0	0	0	0	0;
	813	505.6	72.0547484	309.08	-290.93	1.037003	100	1	602	200.67	0	0	0	0	0	0	0	0	0	0	0;
	823	1274.2	287.969691	926.68	-298.31	1.039055	100	1	2000	666.67	0	0	0	0	0	0	0	0	0	0	0;
	828	55.9	-11.5610019	20.87	-22.43	1.044382	100	1	58.7	0	0	0	0	0	0	0	0	0	0	0	0;
	831	85.2	16.1086162	55.59	-19.18	1.003271	100	1	120	0	0	0	0	0	0	0	0	0	0	0	0;
	832	507	143.242823	264.71	-102.83	1.004583	100	1	600	200	0	0	0	0	0	0	0	0	0	0	0;
	837	44	10.0969566	27.19	-9.66	1.022737	100	1	60	0	0	0	0	0	0	0	0	0	0	0	0;
	844	97.5	33.5002476	54.35	-20.47	1.064419	100	1	120	0	0	0	0	0	0	0	0	0	0	0	0;
	848	4.03	-4.92283776	49.63	-38.12	1.011431	100	1	100	2.69	0	0	0	0	0	0	0	0	0	0	0;
	849	8.7	59.7154921	6.45	-4.91	1.037264	100	1	17.57	0	0	0	0	0	0	0	0	0	0	0	0;
	851	59.56	42.7429614	96.64	-27.81	1.018845	100	1	200	0	0	0	0	0	0	0	0	0	0	0	0;
	858	855.6	163.393386	440.67	-172.15	1.028813	100	1	1000	333.33	0	0	0	0	0	0	0	0	0	0	0;
	861	55.8	10.9798467	57.98	-16.68	1.050818	100	1	120	0	0	0	0	0	0	0	0	0	0	0	0;
	875	343.5	49.0058959	228.16	-78.19	1.038959	100	1	500	166.67	0	0	0	0	0	0	0	0	0	0	0;
	888	181.98	5.91214412	138.6	-45.27	1.037604	100	1	300	100	0	0	0	0	0	0	0	0	0	0	0;
	891	1702.8	706.796128	1097.41	-373.91	1.062964	100	1	2400	800	0	0	0	0	0	0	0	0	0	0	0;
	894	264.67	70.2071355	141.93	-57.74	1.054199	100	1	320	0	0	0	0	0	0	0	0	0	0	0	0;
	896	-2.7	-2.2284873	8.6	-11.4	1.021987	100	1	100	-3.6	0	0	0	0	0	0	0	0	0	0	0;
	913	1249.4	710.140129	772.11	-269.94	1.026545	100	1	1700	566.67	0	0	0	0	0	0	0	0	0	0	0;
	916	230.2	-20.6211559	134.45	-49.76	1.022135	100	1	300	0	0	0	0	0	0	0	0	0	0	0	0;
	917	32	4.73709736	18.22	-6.73	1.061631	100	1	40	0	0	0	0	0	0	0	0	0	0	0	0;
	926	420	123.03722	201.12	-87.96	1.008066	100	1	472	157.33	0	0	0	0	0	0	0	0	0	0	0;
	927	27.4	-1.22698876	28.69	-8.16	1.067901	100	1	60	0	0	0	0	0	0	0	0	0	0	0	0;
	930	679.6	-65.7127514	406.66	-144.75	1.058189	100	1	900	300	0	0	0	0	0	0	0	0	0	0	0;
	972	1221.2	416.306835	934.73	-291.52	1.078612	100	1	2000	666.67	0	0	0	0	0	0	0	0	0	0	0;
	974	83.89	19.3359074	54.36	-20.21	1.033045	100	1	120	0	0	0	0	0	0	0	0	0	0	0	0;
	976	21.3	35.4366027	36.02	-35.35	1.024328	100	1	107.83	0	0	0	0	0	0	0	0	0	0	0	0;
	978	14.9	0.309939754	6.43	-2.99	1.017319	100	1	15.15	0	0	0	0	0	0	0	0	0	0	0	0;
	983	1034.8	-153.312146	948.36	-277.27	1.078039	100	1	2000	666.67	0	0	0	0	0	0	0	0	0	0	0;
	984	1029.2	12.1683174	738.93	-240.84	1.031963	100	1	1600	533.33	0	0	0	0	0	0	0	0	0	0	0;
	991	21.68	4.68801536	16.83	-8.05	1.001634	100	1	40	0	0	0	0	0	0	0	0	0	0	0	0;
	992	14.96	19.8674832	25.97	-10.87	1.030255	100	1	60	0	0	0	0	0	0	0	0	0	0	0	0;
	993	-136.9	36.4209249	17.85	-7.07	1.037248	100	1	100	-182.53	0	0	0	0	0	0	0	0	0	0	0;
	1001	92.1	53.646971	55.02	-19.81	1.069874	100	1	120	0	0	0	0	0	0	0	0	0	0	0	0;
	1002	171	10.7913393	89.55	-35.15	1.03837	100	1	200	0	0	0	0	0	0	0	0	0	0	0	0;
	1004	86.4	35.7520913	43.99	-17.4	0.99944	100	1	100	0	0	0	0	0	0	0	0	0	0	0	0;
	1021	-179.3	22.1356403	58.34	-16.23	1.012345	100	1	100	-239.07	0	0	0	0	0	0	0	0	0	0	0;
	1029	138.6	11.5901768	90.64	-31.73	1.037886	100	1	200	0	0	0	0	0	0	0	0	0	0	0	0;
	1030	164.94	19.4357751	71.66	-27.89	1.007808	100	1	400	100	0	0	0	0	0	0	0	0	0	0	0;
	1036	202.5	2.3014836	137.39	-46.45	1.037074	100	1	300	100	0	0	0	0	0	0	0	0	0	0	0;
	1043	829.5	49.5899172	387.88	-163.4	1.027465	100	1	900	300	0	0	0	0	0	0	0	0	0	0	0;
	1050	337.91	14.2285756	173.5	-71.79	1.055375	100	1	518.72	252.05	0	0	0	0	0	0	0	0	0	0	0;
	1082	364.4	60.870304	171.62	-73.5	1.027941	100	1	400	133.33	0	0	0	0	0	0	0	0	0	0	0;
	1083	91.8	8.17729391	54.91	-19.88	1.050507	100	1	120	0	0	0	0	0	0	0	0	0	0	0	0;
	1088	4.6	5.03478614	8.06	-3.66	1.025882	100	1	45.99	0	0	0	0	0	0	0	0	0	0	0	0;
	1093	837	96.5847503	550.69	-185.15	1.024587	100	1	1200	400	0	0	0	0	0	0	0	0	0	0	0;
	1097	17.5	3.19883022	6.17	-6.64	1.013606	100	1	18.38	0	0	0	0	0	0	0	0	0	0	0	0;
	1098	93.35	-17.2827784	91.42	-31.24	1.104358	100	1	200	66.67	0	0	0	0	0	0	0	0	0	0	0;
	1100	58.2	6.48309896	36.8	-13.01	1.042301	100	1	80	0	0	0	0	0	0	0	0	0	0	0	0;
	1102	-124.15	21.8671215	38.05	-11.59	1.048163	100	1	100	-165.54	0	0	0	0	0	0	0	0	0	0	0;
	1103	405.69	38.1637694	376.66	-112.66	1.043526	100	1	800	266.67	0	0	0	0	0	0	0	0	0	0	0;
	1117	744.1	-238.998847	307.47	-487.11	1.009173	100	1	864	288	0	0	0	0	0	0	0	0	0	0	0;
	1119	298.7	-2.15910253	126.49	-57.33	1.044725	100	1	300	100	0	0	0	0	0	0	0	0	0	0	0;
	1121	289.79	-3.13989341	158.2	-62.81	1.017488	100	1	360	0	0	0	0	0	0	0	0	0	0	0	0;
	1122	75.2	11.7189627	68	-56.08	1.043868	100	1	190.28	0	0	0	0	0	0	0	0	0	0	0	0;
	1125	129.6	21.3805284	114.57	-34.74	1.04319	100	1	240	0	0	0	0	0	0	0	0	0	0	0	0;
	1131	667.5	109.190266	407.66	-143.61	1.036981	100	1	900	300	0	0	0	0	0	0	0	0	0	0	0;
	1138	930.3	95.305434	432.44	-180.7	1.088765	100	1	1000	333.33	0	0	0	0	0	0	0	0	0	0	0;
	1139	175.48	49.6764947	107.89	-41.5	1.054186	100	1	240	0	0	0	0	0	0	0	0	0	0	0	0;
	1145	173.47	-60.9731529	153.07	-144.24	1.040382	100	1	452.53	37.71	0	0	0	0	0	0	0	0	0	0	0;
	1173	-124.7	3.41957843	1.85	-0.88	1.018544	100	1	100	-166.27	0	0	0	0	0	0	0	0	0	0	0;
	1174	26.8	6.31191144	18.61	-6.28	1.002801	100	1	40	0	0	0	0	0	0	0	0	0	0	0	0;
	1175	309.54	17.5569828	108.35	-39.12	1.038334	100	1	700	200	0	0	0	0	0	0	0	0	0	0	0;
	1176	6.7	14.1847089	94.13	-28.09	1.016193	100	1	100	4.46	0	0	0	0	0	0	0	0	0	0	0;
	1184	329.2	165.31441	178.02	-67.55	1.037371	100	1	400	0	0	0	0	0	0	0	0	0	0	0	0;
	1220	107.4	58.4170358	84.07	-26.48	1.008655	100	1	180	0	0	0	0	0	0	0	0	0	0	0	0;
	1225	282.8	16.6814022	118.84	-55.64	1.051668	100	1	290.43	0	0	0	0	0	0	0	0	0	0	0	0;
	1237	1504.8	359.562598	906.61	-319.44	1.103909	100	1	2000	666.67	0	0	0	0	0	0	0	0	0	0	0;
	1241	46.13	7.03720214	22.29	-20.98	1.019582	100	1	65.63	0	0	0	0	0	0	0	0	0	0	0	0;
...
];

%% branch data
%	fbus	tbus	r	x	b	rateA	rateB	rateC	ratio	angle	status	angmin	angmax	Pf	Qf	Pt	Qt
mpc.branch = [
	5147	3097	0.0006	0.00616	0	823	0	0	0	0	1	-360	360	-62.3516	91.1370	62.4213	-90.4215;
	5147	8763	0.0005	0.0074	0	921	0	0	0	0	1	-360	360	62.3516	-72.4400	-62.3081	73.0839;
	2169	3124	0.00107	0.00626	0	476	0	0	0	0	1	-360	360	-187.4318	11.1874	187.7835	-9.1299;
	2169	3234	0.000841	0.0055	0	476	0	0	0	0	1	-360	360	187.4318	-9.7607	-187.1556	11.5668;
	3517	711	0.00143	0.01563	0	1645	0	0	0	0	1	-360	360	865.0409	3.2844	-855.7764	97.9780;
	3517	4533	0.00146	0.01692	0	1711	0	0	0	0	1	-360	360	-865.0409	46.0465	874.5265	63.8825;
	427	5425	7e-05	0.00057	0	1711	0	0	0	0	1	-360	360	277.7089	63.9320	-277.6597	-63.5314;
	427	4704	6e-05	0.00056	0	1514	0	0	0	0	1	-360	360	-277.7089	-62.4992	277.7510	62.8919;
	5960	7431	0.003349	0.01656	0	0	0	0	0	0	1	-360	360	4.3159	3.1270	-4.3149	-3.1225;
	5960	3186	0.003409	0.016211	0	0	0	0	0	0	1	-360	360	-4.3159	-0.2521	4.3165	0.2551;
	4481	7431	0.003479	0.01586	0	0	0	0	0	0	1	-360	360	4.2082	3.1783	-4.2073	-3.1741;
	4481	3186	0.003099	0.017969	0	0	0	0	0	0	1	-360	360	-4.2082	-0.3862	4.2088	0.3893;
	531	9203	0.00127	0.01842	0	823	0	0	0	0	1	-360	360	-564.6994	123.0480	568.7475	-64.3347;
	531	835	0.00126	0.01847	0	1547	0	0	0	0	1	-360	360	564.6994	-73.3760	-560.8005	130.5291;
	1656	118	0.0013	0.01808	0	1218	0	0	0	0	1	-360	360	-658.4741	107.6471	663.9526	-31.4546;
	1656	3449	0.00131	0.01765	0	1744	0	0	0	0	1	-360	360	658.4741	-56.1594	-653.0582	129.1307;
	5084	1809	0.00065	0.01311	0	2793	0	0	0	0	1	-360	360	456.6271	444.2195	-454.1018	-393.2856;
	5084	6398	0.00067	0.00974	0	2598	0	0	0	0	1	-360	360	-456.6271	72.2407	457.9980	-52.3124;
	5205	7833	0.00236	0.01418	0	553	0	0	0	0	1	-360	360	161.1994	-3.1940	-160.6079	6.7478;
	5205	7770	0.002169	0.015909	0	514	0	0	0	0	1	-360	360	-161.1994	6.1398	161.7435	-2.1485;
	354	1278	0.00027	0.00254	0	1349	0	0	0	0	1	-360	360	-27.5602	123.2961	27.5994	-122.9265;
	354	7617	0.00027	0.00259	0	1119	0	0	0	0	1	-360	360	27.5602	-113.7847	-27.5264	114.1082;
	2611	1278	0.00033	0.00302	0	1448	0	0	0	0	1	-360	360	343.0131	-92.2460	-342.6303	95.7496;
	2611	905	0.00029	0.00312	0	1613	0	0	0	0	1	-360	360	-343.0131	102.5666	343.3549	-98.8893;
	1842	6542	0.000289	0.00137	0	533	0	0	0	0	1	-360	360	12.3861	34.6941	-12.3824	-34.6768;
	1842	7622	0.000219	0.00263	0	0	0	0	0	0	1	-360	360	-12.3861	-7.5974	12.3865	7.6026;
	2134	6542	0.000289	0.001341	0	457	0	0	0	0	1	-360	360	35.9770	6.0859	-35.9734	-6.0692;
	2134	8785	0.000229	0.00257	0	0	0	0	0	0	1	-360	360	-35.9770	21.5313	35.9807	-21.4892;
	6613	6542	0.000841	0.00689	0	514	0	0	0	0	1	-360	360	60.3519	-27.9432	-60.3171	28.2279;
	6613	1651	0.000979	0.00586	0	495	0	0	0	0	1	-360	360	-60.3519	29.0565	60.3929	-28.8109;
	5773	6542	0.00014	0.0012	0	0	0	0	0	0	1	-360	360	-8.5299	64.0335	8.5353	-63.9870;
	5773	7840	0.000211	0.001539	0	0	0	0	0	0	1	-360	360	8.5299	-63.6466	-8.5218	63.7056;
	5214	6542	0.000401	0.004901	0	0	0	0	0	0	1	-360	360	-4.5132	27.4721	4.5161	-27.4368;
	5214	7840	0.000219	0.00151	0	533	0	0	0	0	1	-360	360	4.5132	-26.5252	-4.5117	26.5353;
	8072	6542	0.000729	0.004539	0	495	0	0	0	0	1	-360	360	-90.4485	-12.9890	90.5053	13.3429;
	8072	2759	0.00062	0.00482	0	495	0	0	0	0	1	-360	360	90.4485	13.8028	-90.4000	-13.4260;
	2971	6069	0.00052	0.00407	0	1481	0	0	0	0	1	-360	360	-93.8959	129.7688	94.0329	-128.6964;
	2971	3445	0.00034	0.00502	0	1843	0	0	0	0	1	-360	360	93.8959	-118.5216	-93.8160	119.7002;
	7561	6069	0.00065	0.00698	0	1711	0	0	0	0	1	-360	360	338.2666	125.9890	-337.4072	-116.7612;
	7561	8825	0.00059	0.00806	0	1678	0	0	0	0	1	-360	360	-338.2666	-105.7452	339.0185	116.0173;
	6748	8864	0.00063	0.00464	0	495	0	0	0	0	1	-360	360	-54.0757	-5.3389	54.0933	5.4687;
	6748	5078	0.000599	0.005099	0	533	0	0	0	0	1	-360	360	54.0757	6.6891	-54.0588	-6.5456;
	4956	4785	0.00064	0.00307	0	0	0	0	0	0	1	-360	360	-140.7218	-41.5418	140.8450	42.1329;
	4956	7667	0.000659	0.003	0	0	0	0	0	0	1	-360	360	140.7218	42.6487	-140.5943	-42.0685;
	8619	6775	0.00053	0.00528	0	1086	0	0	0	0	1	-360	360	-80.2054	-63.5421	80.2580	64.0661;
	8619	8195	0.00056	0.0053	0	1283	0	0	0	0	1	-360	360	80.2054	77.5743	-80.1393	-76.9489;
	3107	4785	0.0018	0.007919	0	0	0	0	0	0	1	-360	360	-117.2462	-55.3461	117.5190	56.5461;
	3107	7154	0.001651	0.00862	0	0	0	0	0	0	1	-360	360	117.2462	58.2859	-116.9911	-56.9537;
	5437	6775	0.00045	0.00545	0	1382	0	0	0	0	1	-360	360	300.3670	78.4312	-299.9630	-73.5391;
	5437	905	0.00052	0.00476	0	1547	0	0	0	0	1	-360	360	-300.3670	-65.9879	300.8250	70.1809;
	2282	6876	0.01286	0.037421	0	0	0	0	0	0	1	-360	360	-1.2939	3.3951	1.2955	-3.3904;
	2282	5654	0.032397	0.123	0	0	0	0	0	0	1	-360	360	1.2939	-2.6128	-1.2912	2.6229;
	474	6876	0.032851	0.069727	0	0	0	0	0	0	1	-360	360	-7.0599	6.0830	7.0872	-6.0250;
	474	8045	0.059942	0.112802	0	0	0	0	0	0	1	-360	360	7.0599	-5.0698	-7.0166	5.1513;
	7917	7472	0.00011	0.00109	0	1086	0	0	0	0	1	-360	360	-104.9771	-183.5922	105.0219	184.0363;
	7917	8899	0.00011	0.00107	0	1185	0	0	0	0	1	-360	360	104.9771	186.5999	-104.9311	-186.1531;
	6225	7681	0.000461	0.00395	0	629	0	0	0	0	1	-360	360	269.2615	100.1898	-268.9211	-97.2732;
	6225	1508	0.000599	0.003789	0	591	0	0	0	0	1	-360	360	-269.2615	-99.2955	269.7028	102.0873;
	7118	6568	0.00173	0.01542	0	987	0	0	0	0	1	-360	360	6.8254	116.4154	-6.6342	-114.7109;
	7118	4346	0.00166	0.02083	0	1119	0	0	0	0	1	-360	360	-6.8254	-67.4142	6.8873	68.1916;
	3469	8850	0.006314	0.018488	0	0	0	0	0	0	1	-360	360	14.6020	-4.2242	-14.5885	4.2637;
	3469	1997	0.015727	0.037669	0	0	0	0	0	0	1	-360	360	-14.6020	4.5166	14.6359	-4.4354;
	7556	7058	0.00374	0.02095	0	800	0	0	0	0	1	-360	360	274.9122	-22.1850	-272.3059	36.7840;
	7556	4324	0.00511	0.019461	0	800	0	0	0	0	1	-360	360	-274.9122	25.5690	278.4806	-11.9788;
	1069	2867	0.011281	0.050771	0	457	0	0	0	0	1	-360	360	150.2392	-49.2555	-147.6150	61.0660;
	1069	2588	0.0115	0.049719	0	438	0	0	0	0	1	-360	360	-150.2392	58.6260	153.0226	-46.5925;
	3945	2867	0.011719	0.048659	0	438	0	0	0	0	1	-360	360	155.1392	-54.0122	-152.1961	66.2324;
	3945	2588	0.01193	0.047599	0	438	0	0	0	0	1	-360	360	-155.1392	63.7366	158.2624	-51.2754;
	132	2962	0.00064	0.00715	0	1481	0	0	0	0	1	-360	360	-240.4605	36.6767	240.7960	-32.9287;
	132	4393	0.00089	0.00712	0	1283	0	0	0	0	1	-360	360	240.4605	-12.5336	-240.0034	16.1910;
	5044	693	0.00048	0.00555	0	987	0	0	0	0	1	-360	360	-27.7678	-21.6772	27.7731	21.7388;
	5044	7860	0.00047	0.00566	0	1086	0	0	0	0	1	-360	360	27.7678	35.0930	-27.7593	-34.9915;
	6883	693	0.00046	0.00524	0	1053	0	0	0	0	1	-360	360	-30.3138	-23.5445	30.3199	23.6137;
	6883	7860	0.00052	0.00514	0	1053	0	0	0	0	1	-360	360	30.3138	37.3951	-30.3030	-37.2884;
	1456	4503	0.00438	0.010686	0	0	0	0	0	0	1	-360	360	-41.6507	-3.2736	41.7273	3.4606;
	1456	6658	0.031347	0.062653	0	0	0	0	0	0	1	-360	360	41.6507	3.6426	-41.1013	-2.5445;
	6494	4945	0.00029	0.00298	0	1613	0	0	0	0	1	-360	360	-513.7395	8.3536	514.4280	-1.2790;
	6494	6080	0.0003	0.00291	0	1514	0	0	0	0	1	-360	360	513.7395	0.7649	-513.0274	6.1418;
	1384	9010	0.00155	0.01529	0	1185	0	0	0	0	1	-360	360	-105.6103	179.2162	106.1547	-173.8463;
	1384	3146	0.00148	0.0152	0	1283	0	0	0	0	1	-360	360	105.6103	-127.0740	-105.2823	130.4421;
	8697	8142	0.000169	0.00096	0	312	0	0	0	0	1	-360	360	-102.0827	-62.2884	102.1075	62.4290;
	8697	6195	0.000182	0.000942	0	312	0	0	0	0	1	-360	360	102.0827	62.8254	-102.0560	-62.6868;
	5665	424	0.00016	0.00184	0	0	0	0	0	0	1	-360	360	-922.1562	70.6579	923.3953	-56.4081;
	5665	7235	0.00022	0.00287	0	0	0	0	0	0	1	-360	360	922.1562	-63.4455	-920.4544	85.6468;
	3852	6497	0.00015	0.00187	0	0	0	0	0	0	1	-360	360	-901.9470	3.4063	903.0269	10.0567;
	3852	4779	0.00022	0.00266	0	0	0	0	0	0	1	-360	360	901.9470	3.8142	-900.3631	15.3364;
	674	8885	0.00138	0.0174	0	1316	0	0	0	0	1	-360	360	-55.0963	42.6646	55.1523	-41.9581;
	674	3115	0.00272	0.0288	0	1086	0	0	0	0	1	-360	360	55.0963	36.0428	-54.9977	-34.9988;
	8126	5177	0.00065	0.01024	0	1843	0	0	0	0	1	-360	360	898.0072	108.5617	-893.1522	-32.0770;
	8126	6007	0.00073	0.01004	0	1876	0	0	0	0	1	-360	360	-898.0072	-82.3699	903.4264	156.9024;
	8935	5177	0.00075	0.00983	0	1909	0	0	0	0	1	-360	360	936.4678	104.8694	-930.3924	-25.2408;
	8935	6007	0.00076	0.00963	0	1909	0	0	0	0	1	-360	360	-936.4678	-76.2042	942.5882	153.7567;
	7146	7388	0.00042	0.02666	0	1185	0	0	0	0	1	-360	360	0.0000	0.0000	0.0000	0.0000;
	4003	8855	0.00029	0.0026	0	0	0	0	0	0	1	-360	360	528.9452	59.3628	-528.1910	-52.6011;
	4003	5781	0.00022	0.00303	0	1185	0	0	0	0	1	-360	360	-528.9452	-48.0006	529.5149	55.8466;
	6996	3761	0.001	0.006159	0	0	0	0	0	0	1	-360	360	192.1229	50.1486	-191.7591	-47.9083;
	6996	9108	0.00113	0.00657	0	533	0	0	0	0	1	-360	360	-192.1229	-48.6636	192.5324	51.0445;
	1212	8258	0.0013	0.01277	0	1316	0	0	0	0	1	-360	360	266.6826	74.3222	-265.9390	-67.0179;
	1212	7330	0.00163	0.01808	0	1382	0	0	0	0	1	-360	360	-266.6826	-27.1829	267.5568	36.8789;
	8644	106	0.00047	0.00406	0	1316	0	0	0	0	1	-360	360	291.9177	55.4631	-291.6122	-52.8240;
	8644	5883	0.00235	0.02343	0	1316	0	0	0	0	1	-360	360	-291.9177	-11.6166	293.3944	26.3391;
	97	6413	0.00036	0.00445	0	1547	0	0	0	0	1	-360	360	467.5847	168.3763	-466.7833	-158.4702;
	97	1644	0.00017	0.0025	0	1909	0	0	0	0	1	-360	360	-467.5847	-157.9691	467.9579	163.4578;
	4379	6413	0.00036	0.00436	0	1580	0	0	0	0	1	-360	360	144.5765	184.1280	-144.3985	-181.9726;
	4379	3483	0.00017	0.00255	0	1810	0	0	0	0	1	-360	360	-144.5765	-173.5187	144.6547	174.6921;
	1885	3208	0.00096	0.00995	0	1349	0	0	0	0	1	-360	360	254.9067	-34.7670	-254.3639	40.3935;
	1885	6790	0.00152	0.01949	0	1382	0	0	0	0	1	-360	360	-254.9067	69.7400	255.8137	-58.1102;
	5314	3208	0.00094	0.01014	0	1251	0	0	0	0	1	-360	360	250.3862	-33.3826	-249.8737	38.9106;
	5314	6790	0.00149	0.01986	0	1415	0	0	0	0	1	-360	360	-250.3862	67.6170	251.2425	-56.2032;
	2885	3208	0.00107	0.01243	0	1152	0	0	0	0	1	-360	360	198.7546	71.2419	-198.3553	-66.6027;
	2885	2585	0.00102	0.01034	0	1218	0	0	0	0	1	-360	360	-198.7546	-41.7039	199.1068	45.2743;
	3717	4848	0.0047	0.02061	0	438	0	0	0	0	1	-360	360	-118.9122	-34.9876	119.5572	37.8162;
	3717	3688	0.00739	0.040531	0	400	0	0	0	0	1	-360	360	118.9122	40.2155	-117.8720	-34.5104;
	6064	8640	0.00049	0.00611	0	1942	0	0	0	0	1	-360	360	-326.7978	-61.7324	327.1936	66.6677;
	6064	7330	0.00035	0.00431	0	1547	0	0	0	0	1	-360	360	326.7978	80.9443	-326.5081	-77.3767;
	5377	1029	0.00261	0.01344	0	419	0	0	0	0	1	-360	360	-23.4210	-32.4449	23.4601	32.6466;
	5377	3525	0.003521	0.019591	0	419	0	0	0	0	1	-360	360	23.4210	35.6039	-23.3611	-35.2705;
	6870	3431	0.0025	0.01419	0	0	0	0	0	0	1	-360	360	-10.4145	-66.1788	10.5206	66.7809;
	6870	5046	0.00287	0.0237	0	381	0	0	0	0	1	-360	360	10.4145	70.0607	-10.2784	-68.9366;
	6693	6743	0.00088	0.00956	0	1547	0	0	0	0	1	-360	360	532.2379	-107.5833	-529.9443	132.4995;
	6693	287	0.00095	0.00877	0	1382	0	0	0	0	1	-360	360	-532.2379	131.3746	534.7616	-108.0767;
	2053	752	0.00332	0.020651	0	457	0	0	0	0	1	-360	360	-96.2606	18.5788	96.5573	-16.7336;
	2053	3048	0.003969	0.018781	0	457	0	0	0	0	1	-360	360	96.2606	-15.3627	-95.9100	17.0219;
	2893	2738	0.002849	0.014909	0	438	0	0	0	0	1	-360	360	-3.5896	21.9816	3.6038	-21.9069;
	2893	1575	0.00439	0.02451	0	438	0	0	0	0	1	-360	360	3.5896	-19.1911	-3.5726	19.2855;
	1524	8687	0.0002	0.0018	0	0	0	0	0	0	1	-360	360	-721.6702	6.9138	722.6822	2.1937;
	1524	8393	0.00025	0.00261	0	0	0	0	0	0	1	-360	360	721.6702	0.5186	-720.4054	12.6860;
	7369	8687	0.0002	0.00176	0	0	0	0	0	0	1	-360	360	-728.1173	9.0433	729.1474	0.0218;
	7369	139	0.00025	0.00255	0	1909	0	0	0	0	1	-360	360	728.1173	-1.4767	-726.8298	14.6087;
	1019	6176	0.012488	0.047413	0	0	0	0	0	0	1	-360	360	-29.4273	3.5303	29.5328	-3.1297;
	1019	7177	0.010479	0.027711	0	0	0	0	0	0	1	-360	360	29.4273	-3.2080	-29.3390	3.4415;
	2607	7458	0.00044	0.00428	0	1810	0	0	0	0	1	-360	360	1037.8703	-64.6998	-1033.6205	106.0384;
	2607	1337	0.00036	0.00475	0	0	0	0	0	0	1	-360	360	-1037.8703	77.6199	1041.3533	-31.6637;
	4735	5239	0.00058	0.00534	0	1876	0	0	0	0	1	-360	360	852.5169	-173.4127	-847.9922	215.0717;
	4735	3145	0.00054	0.00589	0	1843	0	0	0	0	1	-360	360	-852.5169	186.5973	856.7561	-140.3594;
	2941	1429	0.00206	0.02057	0	1152	0	0	0	0	1	-360	360	45.8324	-15.7503	-45.7895	16.1791;
	2941	1542	0.00077	0.00872	0	954	0	0	0	0	1	-360	360	-45.8324	56.2339	45.8684	-55.8266;
	3773	9183	0.00161	0.01963	0	1349	0	0	0	0	1	-360	360	-416.3688	36.5366	418.8751	-5.9776;
	3773	1542	0.00075	0.00888	0	1382	0	0	0	0	1	-360	360	416.3688	-2.7698	-415.2101	16.4887;
	1937	7261	0.00016	0.00152	0	1645	0	0	0	0	1	-360	360	-741.3984	88.7022	742.2068	-81.0223;
	1937	5479	0.00019	0.00163	0	1711	0	0	0	0	1	-360	360	741.3984	-83.4497	-740.4399	91.6721;
	5473	7261	0.00015	0.0016	0	1547	0	0	0	0	1	-360	360	-684.0356	65.5122	684.6776	-58.6638;
	5473	5479	0.00015	0.00183	0	1645	0	0	0	0	1	-360	360	684.0356	-60.6361	-683.3944	68.4587;
	3648	3290	0.00121	0.01426	0	1415	0	0	0	0	1	-360	360	-468.3401	-117.2924	470.8798	147.2228;
	3648	5523	0.00116	0.01456	0	1448	0	0	0	0	1	-360	360	468.3401	181.5615	-465.7048	-148.4833;
	451	144	0.00068	0.00727	0	1777	0	0	0	0	1	-360	360	916.7950	-61.9832	-911.7196	116.2444;
	451	1601	0.0007	0.00734	0	1876	0	0	0	0	1	-360	360	-916.7950	87.6746	922.0434	-32.6415;
	7898	144	0.00076	0.00712	0	1580	0	0	0	0	1	-360	360	933.4337	-75.2151	-927.5424	130.4073;
	7898	1601	0.0008	0.00719	0	1909	0	0	0	0	1	-360	360	-933.4337	104.3237	939.6720	-48.2568;
	2105	1582	0.0002	0.0022	0	1218	0	0	0	0	1	-360	360	-19.4451	-191.8079	19.5140	192.5661;
	2105	7416	0.0002	0.0022	0	1251	0	0	0	0	1	-360	360	19.4451	198.5161	-19.3713	-197.7045;
	270	2046	0.000205	0.00215	0	1415	0	0	0	0	1	-360	360	37.5243	-195.9478	-37.4486	196.7415;
	270	7416	0.000205	0.00215	0	1448	0	0	0	0	1	-360	360	-37.5243	202.7838	37.6051	-201.9358;
	5938	8433	0.00053	0.00589	0	1316	0	0	0	0	1	-360	360	-200.4927	41.0682	200.6917	-38.8576;
	5938	816	0.00046	0.00675	0	1119	0	0	0	0	1	-360	360	200.4927	-24.1721	-200.3246	26.6388;
	8539	8433	0.00054	0.00577	0	1316	0	0	0	0	1	-360	360	-210.6248	43.3933	210.8485	-41.0022;
	8539	816	0.00045	0.00625	0	1086	0	0	0	0	1	-360	360	210.6248	-26.4858	-210.4431	29.0096;
	1654	1544	0.00275	0.02752	0	1382	0	0	0	0	1	-360	360	-161.6922	-31.1820	162.2825	37.0891;
	1654	7674	0.00184	0.01515	0	1316	0	0	0	0	1	-360	360	161.6922	88.2708	-161.1979	-84.2011;
	2323	4150	0.00438	0.02432	0	0	0	0	0	0	1	-360	360	-5.5317	-15.1643	5.5433	15.2286;
	2323	599	0.0043	0.01949	0	0	0	0	0	0	1	-360	360	5.5317	18.4158	-5.5156	-18.3426;
	8376	6999	0.00033	0.00269	0	1218	0	0	0	0	1	-360	360	135.5600	49.7689	-135.5015	-49.2922;
	8376	4903	0.00243	0.01904	0	1119	0	0	0	0	1	-360	360	-135.5600	-10.2208	135.9417	13.2112;
	942	6999	0.00034	0.00263	0	1119	0	0	0	0	1	-360	360	138.4810	50.0009	-138.4183	-49.5164;
	942	4903	0.00248	0.01864	0	1086	0	0	0	0	1	-360	360	-138.4810	-9.6880	138.8871	12.7407;
	6754	6190	0.00122	0.01249	0	987	0	0	0	0	1	-360	360	-424.0489	59.7288	426.0956	-38.7751;
	6754	4055	0.00106	0.01031	0	1053	0	0	0	0	1	-360	360	424.0489	-22.0821	-422.3004	39.0881;
	3313	6190	0.00119	0.01273	0	987	0	0	0	0	1	-360	360	-423.8379	59.5138	425.8314	-38.1890;
	3313	4055	0.00108	0.01009	0	1086	0	0	0	0	1	-360	360	423.8379	-21.7988	-422.0590	38.4182;
	1383	4401	0.001039	0.013711	0	0	0	0	0	0	1	-360	360	20.9516	34.6357	-20.9360	-34.4302;
	1383	5145	0.00114	0.011409	0	0	0	0	0	0	1	-360	360	-20.9516	-30.2941	20.9657	30.4356;
	7851	5878	0.001021	0.013969	0	0	0	0	0	0	1	-360	360	-16.6125	28.6568	16.6227	-28.5170;
	7851	5145	0.001169	0.011159	0	0	0	0	0	0	1	-360	360	16.6125	-24.2949	-16.6033	24.3831;
	8001	8201	0	0.000271	0	0	0	0	0	0	1	-360	360	0.0000	0.0000	0.0000	0.0000;
	2322	8201	0	0.000271	0	0	0	0	0	0	1	-360	360	0.0000	0.0000	0.0000	0.0000;
	843	154	0.009372	0.035702	0	0	0	0	0	0	1	-360	360	10.9301	0.1615	-10.9193	-0.1203;
	843	3598	0.029157	0.103686	0	0	0	0	0	0	1	-360	360	-10.9301	0.5015	10.9638	-0.3817;
	529	5527	0.00065	0.00673	0	1514	0	0	0	0	1	-360	360	9.6878	-174.7641	-9.5006	176.7024;
	529	4164	0.00066	0.00658	0	1678	0	0	0	0	1	-360	360	-9.6878	204.7186	9.9484	-202.1204;
	3529	2487	0.000969	0.006021	0	553	0	0	0	0	1	-360	360	-65.7127	-50.0398	65.7731	50.4148;
	3529	4167	0.00099	0.005901	0	381	0	0	0	0	1	-360	360	65.7127	52.7455	-65.6486	-52.3630;
	1162	8598	0.00088	0.006599	0	0	0	0	0	0	1	-360	360	-12.6787	1.4772	12.6800	-1.4671;
	1162	5325	0.00086	0.006729	0	495	0	0	0	0	1	-360	360	12.6787	0.8927	-12.6774	-0.8825;
	8690	3277	9e-05	0.00077	0	1711	0	0	0	0	1	-360	360	426.9330	-125.3638	-426.7703	126.7558;
	8690	4226	9e-05	0.00078	0	1580	0	0	0	0	1	-360	360	-426.9330	128.4411	427.0963	-127.0254;
	4922	3277	8e-05	0.00082	0	1481	0	0	0	0	1	-360	360	145.9786	192.1700	-145.9362	-191.7358;
	4922	7617	8e-05	0.00076	0	1251	0	0	0	0	1	-360	360	-145.9786	-189.3438	146.0202	189.7389;
	6759	5527	9e-05	0.00074	0	1613	0	0	0	0	1	-360	360	298.0100	191.4640	-297.9065	-190.6126;
	6759	4226	9e-05	0.00073	0	1251	0	0	0	0	1	-360	360	-298.0100	-188.2575	298.1126	189.0892;
	4088	2487	0.00062	0.003781	0	0	0	0	0	0	1	-360	360	11.2814	-66.5673	-11.2557	66.7243;
	4088	782	0.000599	0.0035	0	553	0	0	0	0	1	-360	360	-11.2814	67.5334	11.3070	-67.3839;
	6871	8598	0.00064	0.00274	0	0	0	0	0	0	1	-360	360	143.2839	-101.8692	-143.0979	102.6653;
	6871	1346	0.000651	0.00268	0	610	0	0	0	0	1	-360	360	-143.2839	102.7840	143.4742	-102.0006;
	6813	1369	0.00055	0.00685	0	1777	0	0	0	0	1	-360	360	-749.8741	2.2772	752.7599	33.6649;
	6813	376	0.00061	0.00639	0	1843	0	0	0	0	1	-360	360	749.8741	13.8625	-746.6723	19.6771;
	6019	5527	0.00042	0.00523	0	1514	0	0	0	0	1	-360	360	256.7717	-62.0610	-256.5010	65.4318;
	6019	8334	0.00045	0.00605	0	1481	0	0	0	0	1	-360	360	-256.7717	73.4515	257.0681	-69.4659;
	5693	3277	0.0003	0.00228	0	1448	0	0	0	0	1	-360	360	-108.9691	-12.6695	109.0020	12.9201;
	5693	8899	0.00026	0.00264	0	1218	0	0	0	0	1	-360	360	108.9691	19.3823	-108.9400	-19.0869;
	3355	9230	0.00536	0.03568	0	553	0	0	0	0	1	-360	360	182.9643	-11.1820	-181.2705	22.4570;
...
];

%%-----  OPF Data  -----%%
%% generator cost data
%	1	startup	shutdown	n	x1	y1	...	xn	yn
%	2	startup	shutdown	n	c(n-1)	...	c0
mpc.gencost = [
	2	0	0	3	0	1	0;
	2	0	0	3	0	1	0;
	2	0	0	3	0	1	0;
	2	0	0	3	0	1	0;
	2	0	0	3	0	1	0;
	2	0	0	3	0	1	0;
	2	0	0	3	0	1	0;
	2	0	0	3	0	1	0;
	2	0	0	3	0	1	0;
	2	0	0	3	0	1	0;
	2	0	0	3	0	1	0;
	2	0	0	3	0	1	0;
	2	0	0	3	0	1	0;
	2	0	0	3	0	1	0;
	2	0	0	3	0	1	0;
	2	0	0	3	0	1	0;
	2	0	0	3	0	1	0;
	2	0	0	3	0	1	0;
	2	0	0	3	0	1	0;
	2	0	0	3	0	1	0;
	2	0	0	3	0	1	0;
	2	0	0	3	0	1	0;
	2	0	0	3	0	1	0;
	2	0	0	3	0	1	0;
	2	0	0	3	0	1	0;
	2	0	0	3	0	1	0;
	2	0	0	3	0	1	0;
	2	0	0	3	0	1	0;
	2	0	0	3	0	1	0;
	2	0	0	3	0	1	0;
	2	0	0	3	0	1	0;
	2	0	0	3	0	1	0;
	2	0	0	3	0	1	0;
	2	0	0	3	0	1	0;
	2	0	0	3	0	1	0;
	2	0	0	3	0	1	0;
	2	0	0	3	0	1	0;
	2	0	0	3	0	1	0;
	2	0	0	3	0	1	0;
	2	0	0	3	0	1	0;
	2	0	0	3	0	1	0;
	2	0	0	3	0	1	0;
	2	0	0	3	0	1	0;
	2	0	0	3	0	1	0;
	2	0	0	3	0	1	0;
	2	0	0	3	0	1	0;
	2	0	0	3	0	1	0;
	2	0	0	3	0	1	0;
	2	0	0	3	0	1	0;
	2	0	0	3	0	1	0;
	2	0	0	3	0	1	0;
	2	0	0	3	0	1	0;
	2	0	0	3	0	1	0;
	2	0	0	3	0	1	0;
	2	0	0	3	0	1	0;
	2	0	0	3	0	1	0;
	2	0	0	3	0	1	0;
	2	0	0	3	0	1	0;
	2	0	0	3	0	1	0;
	2	0	0	3	0	1	0;
	2	0	0	3	0	1	0;
	2	0	0	3	0	1	0;
	2	0	0	3	0	1	0;
	2	0	0	3	0	1	0;
	2	0	0	3	0	1	0;
	2	0	0	3	0	1	0;
	2	0	0	3	0	1	0;
	2	0	0	3	0	1	0;
	2	0	0	3	0	1	0;
	2	0	0	3	0	1	0;
	2	0	0	3	0	1	0;
	2	0	0	3	0	1	0;
	2	0	0	3	0	1	0;
	2	0	0	3	0	1	0;
	2	0	0	3	0	1	0;
	2	0	0	3	0	1	0;
	2	0	0	3	0	1	0;
	2	0	0	3	0	1	0;
	2	0	0	3	0	1	0;
	2	0	0	3	0	1	0;
	2	0	0	3	0	1	0;
	2	0	0	3	0	1	0;
	2	0	0	3	0	1	0;
	2	0	0	3	0	1	0;
	2	0	0	3	0	1	0;
	2	0	0	3	0	1	0;
	2	0	0	3	0	1	0;
	2	0	0	3	0	1	0;
	2	0	0	3	0	1	0;
	2	0	0	3	0	1	0;
	2	0	0	3	0	1	0;
	2	0	0	3	0	1	0;
	2	0	0	3	0	1	0;
	2	0	0	3	0	1	0;
	2	0	0	3	0	1	0;
	2	0	0	3	0	1	0;
	2	0	0	3	0	1	0;
	2	0	0	3	0	1	0;
	2	0	0	3	0	1	0;
	2	0	0	3	0	1	0;
	2	0	0	3	0	1	0;
	2	0	0	3	0	1	0;
	2	0	0	3	0	1	0;
	2	0	0	3	0	1	0;
	2	0	0	3	0	1	0;
	2	0	0	3	0	1	0;
	2	0	0	3	0	1	0;
	2	0	0	3	0	1	0;
	2	0	0	3	0	1	0;
	2	0	0	3	0	1	0;
	2	0	0	3	0	1	0;
	2	0	0	3	0	1	0;
	2	0	0	3	0	1	0;
	2	0	0	3	0	1	0;
	2	0	0	3	0	1	0;
	2	0	0	3	0	1	0;
	2	0	0	3	0	1	0;
	2	0	0	3	0	1	0;
	2	0	0	3	0	1	0;
	2	0	0	3	0	1	0;
	2	0	0	3	0	1	0;
	2	0	0	3	0	1	0;
	2	0	0	3	0	1	0;
	2	0	0	3	0	1	0;
	2	0	0	3	0	1	0;
	2	0	0	3	0	1	0;
	2	0	0	3	0	1	0;
	2	0	0	3	0	1	0;
	2	0	0	3	0	1	0;
	2	0	0	3	0	1	0;
	2	0	0	3	0	1	0;
	2	0	0	3	0	1	0;
	2	0	0	3	0	1	0;
	2	0	0	3	0	1	0;
	2	0	0	3	0	1	0;
	2	0	0	3	0	1	0;
	2	0	0	3	0	1	0;
	2	0	0	3	0	1	0;
	2	0	0	3	0	1	0;
	2	0	0	3	0	1	0;
	2	0	0	3	0	1	0;
	2	0	0	3	0	1	0;
	2	0	0	3	0	1	0;
	2	0	0	3	0	1	0;
	2	0	0	3	0	1	0;
	2	0	0	3	0	1	0;
	2	0	0	3	0	1	0;
	2	0	0	3	0	1	0;
	2	0	0	3	0	1	0;
	2	0	0	3	0	1	0;
	2	0	0	3	0	1	0;
	2	0	0	3	0	1	0;
	2	0	0	3	0	1	0;
	2	0	0	3	0	1	0;
	2	0	0	3	0	1	0;
	2	0	0	3	0	1	0;
	2	0	0	3	0	1	0;
	2	0	0	3	0	1	0;
	2	0	0	3	0	1	0;
	2	0	0	3	0	1	0;
	2	0	0	3	0	1	0;
	2	0	0	3	0	1	0;
	2	0	0	3	0	1	0;
	2	0	0	3	0	1	0;
	2	0	0	3	0	1	0;
	2	0	0	3	0	1	0;
	2	0	0	3	0	1	0;
	2	0	0	3	0	1	0;
	2	0	0	3	0	1	0;
	2	0	0	3	0	1	0;
	2	0	0	3	0	1	0;
	2	0	0	3	0	1	0;
	2	0	0	3	0	1	0;
	2	0	0	3	0	1	0;
	2	0	0	3	0	1	0;
	2	0	0	3	0	1	0;
	2	0	0	3	0	1	0;
	2	0	0	3	0	1	0;
	2	0	0	3	0	1	0;
	2	0	0	3	0	1	0;
	2	0	0	3	0	1	0;
	2	0	0	3	0	1	0;
	2	0	0	3	0	1	0;
	2	0	0	3	0	1	0;
	2	0	0	3	0	1	0;
	2	0	0	3	0	1	0;
	2	0	0	3	0	1	0;
	2	0	0	3	0	1	0;
	2	0	0	3	0	1	0;
	2	0	0	3	0	1	0;
	2	0	0	3	0	1	0;
	2	0	0	3	0	1	0;
	2	0	0	3	0	1	0;
	2	0	0	3	0	1	0;
	2	0	0	3	0	1	0;
	2	0	0	3	0	1	0;
	2	0	0	3	0	1	0;
	2	0	0	3	0	1	0;
	2	0	0	3	0	1	0;
	2	0	0	3	0	1	0;
...
];
